93
Name x y z Z mass(amu) type(recoil or incident) energy(eV) cosX cosY cosZ
O 9.67893 -8.02715 29.0508 8 16 0 2.12222 0.813311 -0.162583 0.558651
O 10.6315 -9.41256 29.6308 8 16 0 2.97098 0.796834 -0.603011 0.0378543
C -3.71822 1.57562 36.6044 6 12 1 4.86511 -0.300776 -0.0982891 -0.948616
C 0 0 39.9 6 12 3 0 0 0 0
O 4.52551 6.67802 20.3849 8 16 0 1.55353 -0.374913 0.467919 -0.800308
C 0.537101 2.16097 29.566 6 12 1 0.605218 -0.0531794 -0.564833 -0.82349
C 0.537101 2.16097 29.566 6 12 3 0 0 0 0
O -7.9588 -1.31454 24.4359 8 16 0 1.51887 -0.661472 0.188973 -0.725771
O 6.16531 -2.75749 21.0774 8 16 0 2.32293 0.292189 0.543207 -0.787116
O -5.06099 1.22456 21.4215 8 16 0 0.235892 0.448046 0.488025 -0.749057
O -2.10827 -5.64717 29.3304 8 16 0 0.80841 0.337126 -0.941201 -0.0220759
C -2.34797 -4.658 29.4188 6 12 1 2.46523 -0.970711 -0.0594796 -0.232769
C -1.00742 -3.18872 30.5148 6 12 3 0 0 0 0
O 11.1956 -4.53936 25.0298 8 16 0 0.169151 0.374358 0.384358 -0.843875
C -6.58599 3.66304 33.1004 6 12 1 2.33551 -0.580362 0.0587327 -0.812238
C 0 0 39.9 6 12 3 0 0 0 0
O -8.09609 -9.295 27.3983 8 16 0 -1.07564 -0.408025 -0.852784 0.325998
O 5.47913 6.1592 20.9942 8 16 0 1.74934 0.607043 0.550881 -0.572738
C 3.12838 4.49306 24.608 6 12 1 1.26587 0.919431 0.389378 -0.0550568
C 3.12838 4.49306 24.608 6 12 3 0 0 0 0
O -16.5212 -3.27226 18.6383 8 16 0 3.21394 -0.171162 0.873959 0.454861
O -2.93004 3.67249 29.134 8 16 0 4.5504 0.273009 0.661332 -0.698645
C 4.8383 1.2183 30.487 6 12 1 1.87616 0.797356 0.429845 0.423624
C 0 0 36.131 6 12 3 0 0 0 0
O -4.03005 0.335747 27.7269 8 16 0 -0.911204 0.101234 -0.631715 -0.768562
C 0 0 36.131 6 12 1 4.63818 0.674404 0.156697 -0.721543
C 0 0 36.131 6 12 3 0 0 0 0
C -4.03228 0.796085 28.3811 6 12 1 2.26449 0.117681 0.343819 -0.931633
C -2.63783 0.822013 30.2533 6 12 3 0 0 0 0
O 2.02824 3.15018 25.6346 8 16 0 1.11445 0.0555152 -0.696037 -0.715857
C 0.114854 -2.08071 34.4865 6 12 1 4.62192 -0.48709 -0.871816 -0.0517695
C 0 0 36.131 6 12 3 0 0 0 0
O -1.75304 -0.634868 34.1634 8 16 0 4.25632 -0.054296 -0.75515 -0.653299
C 2.65505 -0.969265 35.5762 6 12 1 3.86943 0.751299 -0.237852 -0.61561
C 0 0 39.9 6 12 3 0 0 0 0
O -8.02687 2.74098 29.8635 8 16 0 0.993128 -0.925729 -0.204692 -0.318005
C 1.91027 -0.544588 38.2485 6 12 1 4.96662 0.97832 0.183746 -0.0955424
C 0 0 39.9 6 12 3 0 0 0 0
O -3.65244 -5.6646 23.4107 8 16 0 1.2027 -0.418329 0.386513 -0.821954
O -4.43851 1.8581 31.2459 8 16 0 0.360352 0.302945 0.641044 -0.705186
C 3.20663 -0.44307 35.7551 6 12 1 -0.96205 0.160138 -0.987081 0.00526626
C 0 0 39.9 6 12 3 0 0 0 0
C 0 0 36.131 6 12 1 3.80388 -0.148383 -0.450444 -0.880388
C 0 0 36.131 6 12 3 0 0 0 0
O 5.30494 3.23004 29.6722 8 16 0 1.67189 0.788575 0.117446 -0.603619
C 0 0 36.131 6 12 1 0.0135093 -0.614693 -0.428448 -0.662258
C 0 0 36.131 6 12 3 0 0 0 0
C 0.357226 1.05077 29.7614 6 12 1 4.14677 0.694933 -0.275173 -0.66434
C 0.255003 0.455677 32.4925 6 12 3 0 0 0 0
O -0.28357 -2.04879 31.5447 8 16 0 -0.478697 -0.350345 -0.791405 -0.500935
C -3.05428 2.8436 29.524 6 12 1 -1.4456 -0.790902 0.57662 0.204899
C 0 0 36.131 6 12 3 0 0 0 0
O -1.6546 1.30753 27.2854 8 16 0 4.60445 -0.281164 -0.705867 -0.650153
C 0.0976881 -3.26139 36.641 6 12 1 2.43303 -0.259761 -0.965402 -0.0228628
C 0 0 39.9 6 12 3 0 0 0 0
C -0.902378 1.55919 33.6059 6 12 1 1.12085 -0.209342 0.833113 -0.511955
C -0.902378 1.55919 33.6059 6 12 3 0 0 0 0
O 0.743308 1.62018 23.7625 8 16 0 2.52868 0.415766 0.680312 -0.603584
C 0 0 36.131 6 12 1 4.09587 -0.157393 -0.861122 -0.483422
C 0 0 36.131 6 12 3 0 0 0 0
C 0.210798 1.65228 26.6332 6 12 1 4.24489 0.0252995 -0.346628 -0.937661
C 0.210798 1.65228 26.6332 6 12 3 0 0 0 0
O -1.55443 2.70051 19.8312 8 16 0 4.73769 0.412436 -0.0276274 -0.910568
C -0.0337525 0.838902 32.6038 6 12 1 2.25734 0.44996 0.824515 -0.343091
C -0.0337525 0.838902 32.6038 6 12 3 0 0 0 0
O -4.42753 0.248735 18.664 8 16 0 3.92159 0.819112 0.234873 -0.523345
O -6.03373 3.17187 16.6296 8 16 0 2.92406 -0.381739 -0.187726 -0.905005
C 0.352923 -2.14581 29.6059 6 12 1 0.626038 0.557517 -0.559166 -0.613602
C 0.352923 -2.14581 29.6059 6 12 3 0 0 0 0
O 0.521903 -1.42568 18.0626 8 16 0 3.37414 -0.831566 0.479305 0.280651
C 2.14264 -3.978 18.9236 6 12 1 2.70914 0.271242 0.120943 -0.954883
C 0.739806 -2.35936 22.718 6 12 3 0 0 0 0
O 2.90127 0.564907 31.7803 8 16 0 1.39421 0.690387 -0.453813 -0.5634
C -2.93697 1.95524 36.4233 6 12 1 2.97069 -0.721945 0.672088 0.164599
C 0 0 39.9 6 12 3 0 0 0 0
O 7.81318 -4.05067 27.692 8 16 0 3.82239 0.577398 -0.57357 -0.581059
C 0 0 36.131 6 12 1 0.766212 -0.749548 -0.10263 -0.653945
C 0 0 36.131 6 12 3 0 0 0 0
O 7.79559 -0.0852504 27.7654 8 16 0 -1.05249 0.647221 0.757881 -0.081984
C -7.95083 4.0576 36.7936 6 12 1 2.56766 -0.692999 0.224689 -0.685031
C 0 0 39.9 6 12 3 0 0 0 0
O 2.13706 -4.2201 28.2832 8 16 0 -1.30782 0.631651 -0.64808 -0.425451
C 0 0 39.9 6 12 1 4.38189 -0.702412 0.419586 -0.574948
C 0 0 39.9 6 12 3 0 0 0 0
C 1.70434 -3.7991 28.5439 6 12 1 -0.653343 0.904515 -0.250264 -0.345283
C 2.05237 -2.40382 30.6539 6 12 3 0 0 0 0
O -10.4502 -8.23931 26.9976 8 16 0 3.1094 -0.42074 -0.859724 -0.289574
C -0.669994 -0.394531 32.5773 6 12 1 1.8148 0.159629 0.453941 -0.876616
C -0.669994 -0.394531 32.5773 6 12 3 0 0 0 0
O 2.82946 0.53008 32.72 8 16 0 4.1386 -0.0952722 0.472646 -0.876087
C -4.56929 -0.0836828 35.3505 6 12 1 4.15973 -0.68887 -0.644105 0.332544
C 0 0 39.9 6 12 3 0 0 0 0
O -4.24097 1.40017 27.0061 8 16 0 -0.227247 -0.695595 0.661024 0.281417
C 4.03724 0.565769 26.8393 6 12 1 -0.487243 0.716453 0.694343 0.0676993
C -1.10262 -0.0048496 32.7461 6 12 3 0 0 0 0
O -0.0736627 4.94705 32.4312 8 16 0 3.35673 -0.0370473 0.996504 -0.0748799
C -1.86681 -3.13893 22.1651 6 12 1 2.52429 -0.682562 0.408787 -0.605807
C 0 0 39.9 6 12 3 0 0 0 0
O 6.76228 -6.8103 18.7134 8 16 0 0.491225 -0.142804 0.382843 -0.912709
O -1.39177 -0.0814187 34.89 8 16 0 -0.517229 -0.0281218 -0.209213 -0.977466
C 5.18766 8.02119 25.9478 6 12 1 3.31672 -0.403853 0.854411 -0.326933
C 0 0 39.9 6 12 3 0 0 0 0
O -5.6452 1.2934 26.1474 8 16 0 4.11189 -0.35374 0.593003 -0.723336
C 1.32541 -1.35143 34.9266 6 12 1 4.00964 0.59802 -0.79661 -0.0882294
C 0 0 36.131 6 12 3 0 0 0 0
O -1.06619 -6.0816 24.1545 8 16 0 4.34015 -0.493311 -0.855417 -0.157816
C -1.30499 0.842498 34.4773 6 12 1 3.92075 -0.44067 0.792032 -0.422488
C 0 0 36.131 6 12 3 0 0 0 0
O -0.162728 1.832 34.2915 8 16 0 1.89253 0.692237 0.589809 -0.415853
C -0.104855 1.99356 21.7628 6 12 1 3.25247 0.0622472 -0.208696 -0.975998
C 0 0 39.9 6 12 3 0 0 0 0
O 5.9093 7.27501 25.4406 8 16 0 4.79286 0.971568 0.0759769 0.224239
C 2.87015 5.03935 28.433 6 12 1 1.60356 -0.216392 0.481932 -0.849068
C 2.87015 5.03935 28.433 6 12 3 0 0 0 0
O 2.83699 -1.85881 31.9059 8 16 0 1.49964 0.997867 -0.0324424 0.0566533
C 3.3971 4.0453 27.4294 6 12 1 0.44088 0.188859 -0.710146 -0.678252
C 0 0 36.131 6 12 3 0 0 0 0
O -6.66666 -2.25563 23.7129 8 16 0 0.287555 -0.627486 0.553154 -0.547979
O 0.0470178 0.533129 32.496 8 16 0 0.0253097 -0.671917 0.246155 -0.698524
C 10.6822 -7.86047 21.3315 6 12 1 4.13446 0.136177 -0.937663 -0.319756
C 0 0 36.131 6 12 3 0 0 0 0
O 2.61926 -4.5865 22.1837 8 16 0 0.507461 -0.0745966 0.36039 -0.929814
O -2.43011 4.46014 19.0026 8 16 0 2.35041 -0.883533 0.234269 -0.405571
O 2.29302 -1.13309 23.5073 8 16 0 4.10137 0.602831 -0.495823 -0.625104
O -0.965319 -4.12132 28.0739 8 16 0 -1.50747 -0.427927 -0.725316 -0.539254
C 0 0 39.9 6 12 1 2.42771 0.570272 0.603468 -0.557329
C 0 0 39.9 6 12 3 0 0 0 0
C -0.789216 -3.53906 28.5873 6 12 1 2.03201 0.590361 -0.802474 -0.0866528
C -1.55858 -2.30837 30.2214 6 12 3 0 0 0 0
O 5.60761 -4.59757 24.5523 8 16 0 4.45676 0.679026 -0.583036 -0.446085
O 0.528441 -7.32511 28.3811 8 16 0 2.32816 0.526531 -0.809002 0.261307
C 9.01434 6.07321 25 6 12 1 -0.264329 0.275594 0.5261 0.804529
C 0 0 36.131 6 12 3 0 0 0 0
O -1.94856 -0.162645 32.5836 8 16 0 0.829096 0.588502 -0.351256 -0.728206
C 6.62079 -5.51099 35.6061 6 12 1 2.91314 0.755968 0.0634262 0.651529
C 0 0 39.9 6 12 3 0 0 0 0
