194
Name x y z Z mass(amu) type(recoil or incident) energy(eV) cosX cosY cosZ
O 0.218185 0.510343 -46.894 8 16 0 97771.5 -0.00314973 0.00673047 -0.999972
C 0 0 39.9 6 12 1 2.00469 -0.393047 -0.919352 -0.0175014
C 0 0 39.9 6 12 3 0 0 0 0
O 3.14751 -6.03602 -45.455 8 16 0 92980.3 0.0367371 -0.187939 -0.981493
C -15.8374 31.0352 32.7906 6 12 4 4449.31 -0.476952 0.865915 -0.150694
C 0 0 39.9 6 12 3 0 0 0 0
Si 10.097 0.730034 -15.4736 14 28 1 1.5604 -0.257529 0.643062 -0.721214
Si 0 0 -9.89911 14 28 3 0 0 0 0
Si 6.67844 3.45715 -6.15541 14 28 1 2.52995 0.775397 0.382159 -0.502707
Si 0 0 -9.89911 14 28 3 0 0 0 0
Si 9.3917 3.26741 -10.7553 14 28 1 2.36602 0.163699 -0.395039 0.903962
Si 7.07596 1.73662 -12.2736 14 28 3 0 0 0 0
Si 12.0656 -0.63908 -18.9968 14 28 1 4.25359 -0.737724 -0.307973 -0.600763
Si 9.16355 1.63069 -13.6218 14 28 3 0 0 0 0
O -0.6772 0.172515 -46.8886 8 16 0 97754.6 -0.0292628 0.00618719 -0.999553
C 7.79816 -0.690911 40.397 6 12 4 5.99215 0.833139 0.453216 0.316978
C 0 0 39.9 6 12 3 0 0 0 0
O 0.301136 -0.612745 -46.8893 8 16 0 97690.8 -0.0140839 0.0116484 -0.999833
C -1.62158 5.08333 40.3772 6 12 4 8.16359 -0.265166 0.742339 0.615321
C 0 0 39.9 6 12 3 0 0 0 0
Si 3.13575 -5.73159 -8.79437 14 28 1 4.70483 -0.542425 -0.4205 0.727292
Si 0 0 -9.89911 14 28 3 0 0 0 0
Si 7.84313 -6.79388 -8.10002 14 28 1 4.98957 0.525732 -0.675555 0.516944
Si 2.17387 -3.88332 -9.51654 14 28 3 0 0 0 0
O -0.403046 -0.698434 -46.8838 8 16 0 97720.8 -0.0223763 -0.00120432 -0.999749
C 7.4384 8.42894 39.3651 6 12 1 1.63888 -0.039318 0.533271 -0.845031
C 0 0 39.9 6 12 3 0 0 0 0
Si 2.07878 -4.05708 -9.26213 14 28 1 1.23238 -0.187902 -0.668901 0.719211
Si 0 0 -9.89911 14 28 3 0 0 0 0
O 0.410062 0.0713018 -46.898 8 16 0 97745.5 0.0313838 0.0221316 -0.999262
Si -3.4295 -7.76454 -5.76966 14 28 1 4.7888 0.237784 -0.498244 0.833794
Si 0 0 -9.89911 14 28 3 0 0 0 0
O 0.28412 0.989541 -46.8715 8 16 0 97701.7 0.00854759 0.017723 -0.999806
C -3.13875 -7.41332 40.6106 6 12 4 45.8007 -0.205967 -0.83464 0.510836
C 0 0 39.9 6 12 3 0 0 0 0
O -0.446512 0.551633 -46.8881 8 16 0 97706.1 -0.0366174 -0.00384779 -0.999322
C 1.87366 -2.31477 39.8333 6 12 1 0.636283 0.718239 0.0681869 0.692447
C 0 0 39.9 6 12 3 0 0 0 0
Si 7.06006 0.947564 -7.88689 14 28 1 1.83625 0.937472 -0.254167 0.237794
Si 0 0 -9.89911 14 28 3 0 0 0 0
O 1.08508 1.87487 -46.7624 8 16 0 97347.6 0.031574 0.061762 -0.997591
C -11.7642 -15.5522 43.3191 6 12 4 249.983 -0.649142 -0.640919 0.40968
C 0 0 39.9 6 12 3 0 0 0 0
C -11.8851 -21.1697 25.6484 6 12 1 3.33679 -0.504728 0.481745 -0.71636
C -3.65711 -6.31901 39.3991 6 12 3 0 0 0 0
O -0.25929 0.514466 -46.8933 8 16 0 97558.9 -0.0690076 0.0161749 -0.997485
C 0 0 39.9 6 12 1 4.32848 0.449993 -0.892847 -0.0181664
C 0 0 39.9 6 12 3 0 0 0 0
Si 6.08741 4.63804 -13.019 14 28 1 2.42353 0.128849 -0.396304 -0.909033
Si 0 0 -9.89911 14 28 3 0 0 0 0
Si 11.4552 -5.90883 -13.6156 14 28 1 1.27202 -0.217129 -0.973443 -0.0725472
Si 0 0 -9.89911 14 28 3 0 0 0 0
Si 5.00613 -2.58002 -9.31676 14 28 1 0.396821 -0.117314 -0.98525 -0.124578
Si 5.00613 -2.58002 -9.31676 14 28 3 0 0 0 0
Si 12.8529 -9.58254 1.57037 14 28 1 4.63977 0.0239415 0.769189 0.638573
Si 7.52286 -3.79393 -9.50183 14 28 3 0 0 0 0
Si 11.1859 -2.9886 -8.69023 14 28 1 4.94639 0.883341 0.145341 -0.445628
Si 9.92778 -3.96959 -8.65791 14 28 3 0 0 0 0
Si 14.0981 -9.38867 -4.75995 14 28 1 -0.0956451 -0.949615 -0.301688 -0.0849433
Si 13.8618 -7.73829 -4.76489 14 28 3 0 0 0 0
O -0.2387 0.0520973 -46.9014 8 16 0 97727.1 -0.0294311 0.0298765 -0.99912
Si 4.52438 -3.5301 -8.04347 14 28 1 0.33662 0.429491 0.697252 0.573914
Si 0 0 -9.89911 14 28 3 0 0 0 0
Si -0.0473547 -1.42397 -10.7975 14 28 1 1.39368 -0.902219 -0.200539 -0.381818
Si 0 0 -9.89911 14 28 3 0 0 0 0
Si 4.21079 -3.62408 -8.37764 14 28 1 3.58493 0.920512 0.149533 0.360968
Si 3.23875 -2.42376 -9.10849 14 28 3 0 0 0 0
O -3.80384 -0.951225 -46.4373 8 16 0 96298.1 -0.114709 -0.0308456 -0.99292
C 35.8481 -21.9364 -4.45277 6 12 1 2.90221 -0.174443 0.98464 0.00735232
C 0 0 39.9 6 12 3 0 0 0 0
C 0.476025 0.92212 42.1602 6 12 4 7.52957 0.517048 0.334884 0.787727
C 0 0 39.9 6 12 3 0 0 0 0
C 30.2127 9.81489 35.6454 6 12 4 917.937 0.975015 0.202035 -0.0923463
C 21.4797 4.787 35.4322 6 12 3 0 0 0 0
Si 38.1501 -4.83624 16.61 14 28 1 0.565866 -0.499174 -0.697821 -0.513684
Si 38.1556 -3.50157 15.8537 14 28 3 0 0 0 0
Si 43.9056 -12.1927 7.07369 14 28 1 4.94473 0.501155 -0.316485 -0.805407
Si 39.3921 -7.33951 12.8023 14 28 3 0 0 0 0
C 20.7288 16.6154 37.5943 6 12 1 4.33147 -0.246081 0.86363 0.439987
C 21.4797 4.787 35.4322 6 12 3 0 0 0 0
Si 44.2902 -5.53987 12.4314 14 28 1 -0.312204 -0.205 0.509021 0.835986
Si 39.3921 -7.33951 12.8023 14 28 3 0 0 0 0
C 19.6167 5.67213 36.5553 6 12 1 0.127659 0.211576 0.631459 0.745986
C 21.4797 4.787 35.4322 6 12 3 0 0 0 0
C 20.759 8.93061 36.8882 6 12 1 3.74863 0.847554 0.503709 -0.167123
C 20.759 8.93061 36.8882 6 12 3 0 0 0 0
Si 42.6538 -5.38226 11.6975 14 28 1 0.978599 0.937135 -0.144366 0.317706
Si 42.6538 -5.38226 11.6975 14 28 3 0 0 0 0
O -2.60388 1.39759 -46.6402 8 16 0 96953.7 -0.0729593 0.0270652 -0.996968
C 32.0016 -6.33767 31.9686 6 12 4 560.86 0.930094 -0.0956816 -0.35464
C 0 0 39.9 6 12 3 0 0 0 0
C -0.047266 -2.76966 42.193 6 12 4 35.845 -0.0989973 -0.896497 0.431849
C 0 0 39.9 6 12 3 0 0 0 0
C 7.07451 -10.2516 36.8829 6 12 1 0.837506 0.425011 -0.66853 0.610273
C 8.05987 -4.32601 39.0405 6 12 3 0 0 0 0
O -0.971354 -1.25389 -46.8279 8 16 0 97527 -0.0346891 -0.0091019 -0.999357
C -2.14099 26.6689 23.3255 6 12 1 3.83807 -0.236042 -0.304771 -0.922713
C 0 0 39.9 6 12 3 0 0 0 0
Si 0.620752 -1.83371 -9.89308 14 28 1 2.96293 0.0991897 -0.375967 0.921309
Si 0 0 -9.89911 14 28 3 0 0 0 0
C 13.2109 12.4865 39.5956 6 12 1 2.4573 0.663163 0.65887 0.355113
C 5.3278 9.69581 38.4566 6 12 3 0 0 0 0
Si 0.448558 -1.27346 -10.4671 14 28 1 3.4694 0.398845 -0.904935 0.148375
Si 0 0 -9.89911 14 28 3 0 0 0 0
O 0.160479 -0.158474 -46.9017 8 16 0 97757.6 -0.000254305 0.0238944 -0.999714
Si 0.821886 -4.94702 -9.93416 14 28 1 3.8589 0.63743 -0.368316 -0.676777
Si 0 0 -9.89911 14 28 3 0 0 0 0
Si 0.328089 -2.01319 -9.93483 14 28 1 3.09126 -0.254978 -0.615567 0.745697
Si 0.328089 -2.01319 -9.93483 14 28 3 0 0 0 0
O -0.0462713 -0.799577 -46.884 8 16 0 97722.9 0.00693405 -0.0404529 -0.999157
C 0.796427 11.8064 35.4578 6 12 1 1.73617 -0.36903 0.922274 -0.115009
C 0 0 39.9 6 12 3 0 0 0 0
Si -0.802946 2.95278 -9.52477 14 28 1 0.583102 -0.81218 0.405042 -0.419887
Si 0 0 -9.89911 14 28 3 0 0 0 0
O 0.221656 0.195663 -46.9006 8 16 0 97404.3 -0.0617508 0.0544065 -0.996608
Si 10.1911 -24.7851 -0.935147 14 28 1 2.54374 -0.73167 0.668128 -0.135148
Si 0 0 -9.89911 14 28 3 0 0 0 0
Si 19.1474 -0.279917 -9.92978 14 28 1 4.32104 -0.245735 0.868319 0.430856
Si 5.59577 -4.21746 -9.92608 14 28 3 0 0 0 0
Si 9.6253 -10.1743 -10.0282 14 28 1 2.42412 0.912531 0.144584 0.382599
Si 8.26969 -9.59796 -9.28447 14 28 3 0 0 0 0
Si 9.43083 -22.5901 -7.05815 14 28 1 2.41939 0.651703 0.2869 0.70212
Si 8.55205 -14.9053 -7.07855 14 28 3 0 0 0 0
Si 7.30252 -17.5361 -2.92737 14 28 1 0.751506 0.523259 -0.261656 0.81101
Si 8.31011 -17.5605 -6.06525 14 28 3 0 0 0 0
Si 9.57464 -19.4362 -4.82431 14 28 1 3.95543 0.347501 -0.309736 -0.885046
Si 9.57464 -19.4362 -4.82431 14 28 3 0 0 0 0
Si 13.3924 -23.4036 -3.3275 14 28 1 0.843466 0.0804843 -0.99016 -0.114479
Si 12.3025 -22.7338 -4.05427 14 28 3 0 0 0 0
Si 11.039 0.358052 -7.64774 14 28 1 4.7421 0.683625 0.480871 0.549018
Si 8.246 -4.21748 -10.8541 14 28 3 0 0 0 0
Si 10.1192 -8.61675 -12.7219 14 28 1 -0.294067 -0.37117 -0.0489626 0.927273
Si 10.9813 -4.11547 -10.9473 14 28 3 0 0 0 0
Si 6.82349 -16.1478 -7.19525 14 28 1 0.476561 -0.897041 -0.179389 0.403902
Si 6.82349 -16.1478 -7.19525 14 28 3 0 0 0 0
Si 8.246 -4.21748 -10.8541 14 28 1 0.484869 0.967985 -0.0686228 0.241447
Si 8.246 -4.21748 -10.8541 14 28 3 0 0 0 0
O 1.55581 -0.65592 -46.8178 8 16 0 97516.4 0.0304942 -0.00490941 -0.999523
C -16.8288 16.7835 41.5478 6 12 4 55.0082 0.498988 0.850358 0.167039
C 0 0 39.9 6 12 3 0 0 0 0
Si 0 0 -9.89911 14 28 1 1.89958 0.670324 -0.741547 0.0278053
Si 0 0 -9.89911 14 28 3 0 0 0 0
C -22.8325 1.27104 33.8339 6 12 1 2.77667 -0.444401 0.50986 0.73658
C -10.8369 5.17105 38.6949 6 12 3 0 0 0 0
O -0.272902 -1.56366 -46.8278 8 16 0 97496 -0.041874 -0.0485557 -0.997942
C 3.17438 10.923 40.0389 6 12 4 152.844 0.0690934 0.948632 0.308746
C 0 0 39.9 6 12 3 0 0 0 0
Si 7.30399 2.67526 -11.3242 14 28 1 0.738376 -0.251891 0.816955 -0.518783
Si 0 0 -9.89911 14 28 3 0 0 0 0
C 1.00454 5.75576 39.6069 6 12 1 0.636445 0.834753 0.114493 -0.53859
C 1.00454 5.75576 39.6069 6 12 3 0 0 0 0
Si 6.34485 -0.0953564 -12.3692 14 28 1 3.87892 0.992779 0.101133 -0.0645107
Si 4.07182 1.16399 -10.9083 14 28 3 0 0 0 0
O 0.511389 0.649953 -46.8828 8 16 0 97712.9 0.00611147 0.0391825 -0.999213
C -4.15971 -5.36547 40.4886 6 12 4 27.3777 -0.651686 -0.631628 0.419941
C 0 0 39.9 6 12 3 0 0 0 0
Si 0.0323263 -2.89446 -9.33405 14 28 1 1.90107 -0.10815 -0.90739 -0.406136
Si 0 0 -9.89911 14 28 3 0 0 0 0
O -1.58186 0.376618 -46.824 8 16 0 97541.7 -0.0332393 -0.000454997 -0.999447
C 11.0633 -3.41165 40.4965 6 12 4 188.786 0.858226 -0.484953 0.168133
C 0 0 39.9 6 12 3 0 0 0 0
O -1.52999 -1.13379 -46.7945 8 16 0 97452.5 -0.0468558 -0.0223432 -0.998652
C 9.55662 4.09172 42.123 6 12 4 111.975 0.953307 0.0590169 0.296182
C 0 0 39.9 6 12 3 0 0 0 0
C 22.6173 12.0203 40.622 6 12 4 15.7786 0.419135 0.0923315 0.903217
C 0 0 39.9 6 12 3 0 0 0 0
C -5.95798 3.56466 37.2875 6 12 1 1.61924 -0.459156 0.654076 0.601133
C 0 0 39.9 6 12 3 0 0 0 0
O 0.956912 -0.658257 -46.8628 8 16 0 97672.5 0.0336528 -0.011025 -0.999373
C -5.82779 3.47831 42.2447 6 12 4 26.2651 -0.723511 0.402483 0.560838
C 0 0 39.9 6 12 3 0 0 0 0
C -1.98766 1.79439 37.7156 6 12 1 -0.534033 0.62032 0.504446 -0.600614
C 0 0 39.9 6 12 3 0 0 0 0
C -1.69631 0.847398 38.8597 6 12 1 0.0675858 0.160063 0.323995 -0.93242
C 0 0 39.9 6 12 3 0 0 0 0
O 0.399197 -0.134438 -46.8979 8 16 0 97783.9 0.0192713 0.00431367 -0.999805
O 0.492703 0.220232 -46.8945 8 16 0 97774.8 0.0186427 -0.00263159 -0.999823
C 0 0 39.9 6 12 1 0.368207 -0.912816 -0.408016 -0.0170174
C 0 0 39.9 6 12 3 0 0 0 0
O -1.85899 0.926694 -46.7738 8 16 0 97370.7 -0.0577451 0.00742852 -0.998304
C 12.3857 -6.3161 40.3982 6 12 4 330.108 0.889146 -0.348818 0.296219
C 0 0 39.9 6 12 3 0 0 0 0
Si 0.57628 1.37458 -9.91609 14 28 1 1.23356 0.139575 0.507231 0.850433
Si 0 0 -9.89911 14 28 3 0 0 0 0
O -0.105276 0.273396 -46.9006 8 16 0 97788 -0.0054518 0.0218949 -0.999745
O 0.280733 -0.437488 -46.8951 8 16 0 97771.3 0.0158092 -0.0232757 -0.999604
O -0.227065 -0.0809434 -46.9015 8 16 0 97792.9 -0.0137717 0.0087798 -0.999867
O 0.217787 -0.220818 -46.9003 8 16 0 97792.5 0.0120399 -0.0150481 -0.999814
O -0.328419 0.5716 -46.8902 8 16 0 97761.4 -0.00257389 0.0227625 -0.999738
C 1.34415 -2.33944 39.8439 6 12 1 2.64153 0.137407 -0.552656 -0.822004
C 0 0 39.9 6 12 3 0 0 0 0
O 0.910572 -0.654601 -46.8656 8 16 0 97665.9 0.0255257 0.00175829 -0.999673
C -14.1288 4.84533 40.9906 6 12 4 5.29745 0.0798237 0.0459161 0.995751
C 0 0 39.9 6 12 3 0 0 0 0
Si -0.0705631 -1.5224 -9.89723 14 28 1 1.51488 -0.862012 -0.488018 -0.137017
Si 0 0 -9.89911 14 28 3 0 0 0 0
C -8.86641 5.74646 37.6782 6 12 1 0.891104 -0.317424 -0.392653 -0.863172
C -7.50039 4.6917 39.1077 6 12 3 0 0 0 0
O 0.0902772 -0.363922 -46.899 8 16 0 97789.7 0.0121579 -0.010446 -0.999872
O -0.378063 0.0960579 -46.8987 8 16 0 97237.9 -0.0934496 0.0563971 -0.994025
Si 20.2004 -11.3807 0.630726 14 28 1 4.80184 -0.709513 -0.596426 0.375323
Si 0 0 -9.89911 14 28 3 0 0 0 0
Si 0.632351 -4.24352 -13.2924 14 28 1 4.8545 -0.317295 -0.808288 0.495978
Si 0 0 -9.89911 14 28 3 0 0 0 0
Si 12.1296 4.29447 -12.0446 14 28 1 4.18974 -0.224906 0.856319 0.464904
Si 9.86607 -3.61527 -8.58068 14 28 3 0 0 0 0
Si 17.0503 -8.18906 -5.34064 14 28 1 2.51279 -0.603815 -0.514388 0.608944
Si 17.0503 -8.18906 -5.34064 14 28 3 0 0 0 0
Si 22.1853 -17.5807 -4.73772 14 28 1 -0.0664993 -0.612567 0.659132 0.436242
Si 18.765 -10.0801 -3.75372 14 28 3 0 0 0 0
Si 5.39535 -4.10925 -18.1367 14 28 1 4.09617 0.133967 -0.990947 -0.00876426
Si 0.122692 -2.18908 -11.5673 14 28 3 0 0 0 0
Si 14.0772 -3.31302 -8.92844 14 28 1 -0.130855 -0.158907 0.78426 -0.599738
Si 9.86607 -3.61527 -8.58068 14 28 3 0 0 0 0
Si 13.1831 -2.53462 -12.7527 14 28 1 3.27662 -0.000574585 0.276558 -0.960997
Si 12.0788 -2.75834 -10.0173 14 28 3 0 0 0 0
Si 26.9598 -9.81327 -8.19011 14 28 1 3.77654 0.849074 -0.496119 0.181493
Si 21.1118 -11.5772 -3.69988 14 28 3 0 0 0 0
Si 27.5079 -16.2182 0.252219 14 28 1 0.824514 0.307385 0.941392 0.138907
Si 23.1863 -13.1054 -4.51993 14 28 3 0 0 0 0
Si -3.15916 -7.69389 -17.303 14 28 1 -0.0148981 0.350705 -0.707151 -0.613957
Si 0.122692 -2.18908 -11.5673 14 28 3 0 0 0 0
Si 7.74021 -0.600696 -20.822 14 28 1 4.89904 0.6969 0.558054 -0.450452
Si 3.72825 -3.56465 -16.9496 14 28 3 0 0 0 0
Si 13.6288 -8.36116 -10.0024 14 28 1 3.53202 0.973936 0.210755 0.0838543
Si 9.86607 -3.61527 -8.58068 14 28 3 0 0 0 0
Si 17.8803 -3.67268 -6.10681 14 28 1 3.71257 0.163511 -0.255337 0.952925
Si 12.1466 -4.18663 -9.05005 14 28 3 0 0 0 0
Si 26.2724 -14.9834 -2.38674 14 28 1 3.02342 0.100504 -0.989225 0.106459
Si 26.2724 -14.9834 -2.38674 14 28 3 0 0 0 0
O 0.0266223 -0.486533 -46.8961 8 16 0 97631 -0.0488 -0.0300147 -0.998357
Si 8.67509 7.02038 -14.3759 14 28 1 1.25784 0.769129 0.490254 -0.409989
Si 0 0 -9.89911 14 28 3 0 0 0 0
Si 5.97908 0.65687 -10.5292 14 28 1 3.07892 0.823729 0.482264 -0.298148
Si 2.64101 0.89891 -10.0238 14 28 3 0 0 0 0
Si 7.45043 0.322425 -7.56243 14 28 1 4.29882 0.69952 -0.401214 -0.591353
Si 2.64101 0.89891 -10.0238 14 28 3 0 0 0 0
Si 7.82451 3.46792 -6.85081 14 28 1 4.04349 0.344436 -0.0899869 0.934487
Si 4.32701 1.34017 -8.69814 14 28 3 0 0 0 0
O -0.0508861 -0.974871 -46.8747 8 16 0 97710 0.00872882 -0.0222301 -0.999715
C -1.3523 9.71534 41.6424 6 12 1 4.7596 -0.848104 0.529537 -0.0176348
C 0 0 39.9 6 12 3 0 0 0 0
C 0.440628 5.72058 38.398 6 12 1 3.59333 0.50196 0.522115 -0.689515
C 0.211179 4.04574 39.7752 6 12 3 0 0 0 0
O 2.19675 -0.0717991 -46.7582 8 16 0 97329 0.049411 0.0088177 -0.99874
C -21.887 21.7498 29.6942 6 12 1 3.38718 0.338836 0.314762 0.886631
C 0 0 39.9 6 12 3 0 0 0 0
C -1.82081 0.247061 43.2068 6 12 4 34.129 -0.347215 0.545641 0.762704
C 0 0 39.9 6 12 3 0 0 0 0
C -9.76131 -1.36166 40.9352 6 12 4 14.9552 -0.141258 -0.755797 0.639388
C -7.37367 0.241002 39.3864 6 12 3 0 0 0 0
Si -24.6761 6.93346 16.5187 14 28 1 1.1211 -0.255913 -0.368257 0.89381
Si -24.3275 11.7072 19.5298 14 28 3 0 0 0 0
Si -27.9838 21.9464 17.3641 14 28 1 0.531329 -0.742435 -0.225537 0.630812
Si -26.0833 14.6553 16.0722 14 28 3 0 0 0 0
Si -25.3973 13.1583 16.8485 14 28 1 2.25285 -0.948791 0.313635 -0.037808
Si -24.3275 11.7072 19.5298 14 28 3 0 0 0 0
O 0.482618 -0.928366 -46.8705 8 16 0 97698 0.020877 -0.019772 -0.999587
C -1.97617 3.80137 39.7585 6 12 1 2.96618 0.643131 0.720342 0.259787
C 0 0 39.9 6 12 3 0 0 0 0
C -9.57492 7.01669 33.7159 6 12 1 2.98826 -0.490283 0.729274 -0.477264
C 0 0 39.9 6 12 3 0 0 0 0
O -0.321443 -0.155724 -46.8994 8 16 0 97788.4 -0.0161808 0.00489739 -0.999857
O 0.224506 -0.128992 -46.9012 8 16 0 97791.2 0.00089728 0.00940517 -0.999955
O -0.517805 0.360045 -46.8913 8 16 0 97747.7 -0.00635496 -0.00874612 -0.999942
C 2.06177 -1.43361 39.85 6 12 1 3.0062 0.968023 0.241354 0.0684033
C 0 0 39.9 6 12 3 0 0 0 0
Si -1.33221 2.5184 -9.1975 14 28 1 3.01167 0.137405 0.744597 0.653219
Si 0 0 -9.89911 14 28 3 0 0 0 0
O 0.126016 -0.320633 -46.8997 8 16 0 97761 0.0118823 0.0151652 -0.999814
Si 0.459612 -4.74541 -9.13822 14 28 1 2.58049 0.0479893 -0.852408 -0.52067
Si 0 0 -9.89911 14 28 3 0 0 0 0
O -0.195829 -0.42939 -46.8965 8 16 0 97740.7 0.000519712 0.0164584 -0.999864
Si 0.0752665 -4.47177 -8.22158 14 28 1 1.45025 -0.333 -0.661027 0.672424
Si 0 0 -9.89911 14 28 3 0 0 0 0
Si -0.414667 -2.00189 -9.91972 14 28 1 4.19982 -0.628769 -0.776025 0.049355
Si -0.414667 -2.00189 -9.91972 14 28 3 0 0 0 0
O -0.00837201 -0.237839 -46.9015 8 16 0 97787.3 0.0140156 -0.0151909 -0.999786
Si 0 0 -9.89911 14 28 1 0.808747 -0.851584 0.523965 -0.0163147
Si 0 0 -9.89911 14 28 3 0 0 0 0
O 0.169648 0.336604 -46.899 8 16 0 97764.2 -0.0185341 0.0120744 -0.999755
Si 1.77573 -0.228575 -9.92585 14 28 1 1.77609 0.281344 -0.84704 0.450965
Si 0 0 -9.89911 14 28 3 0 0 0 0
O 0.155527 0.333225 -46.8992 8 16 0 97775.9 0.00475326 0.0276609 -0.999606
Si 0 0 -9.89911 14 28 1 4.69478 -0.0294427 -0.999283 -0.0237902
Si 0 0 -9.89911 14 28 3 0 0 0 0
O -0.134847 -0.321542 -46.8996 8 16 0 96750.2 -0.139112 0.00317126 -0.990272
Si 25.598 -3.38151 -21.72 14 28 4 619.121 0.862106 -0.198211 -0.466354
Si 0 0 -9.89911 14 28 3 0 0 0 0
Si 7.7598 -8.99289 5.30872 14 28 1 4.04576 -0.149773 -0.325626 0.933561
Si 4.48518 -0.394298 -10.3964 14 28 3 0 0 0 0
Si 8.93465 -1.04973 -10.7712 14 28 1 2.09088 0.240572 -0.895324 0.374859
Si 8.93465 -1.04973 -10.7712 14 28 3 0 0 0 0
Si 11.149 -1.6864 -16.2972 14 28 1 2.40626 0.790694 0.0561304 -0.609633
Si 12.104 -1.9418 -13.2338 14 28 3 0 0 0 0
Si 8.45697 3.92284 -8.21985 14 28 1 3.27489 0.507939 0.215015 0.834126
Si 4.48518 -0.394298 -10.3964 14 28 3 0 0 0 0
Si 10.487 1.2293 -1.54688 14 28 1 3.22841 0.953266 0.135532 -0.270027
Si 7.9505 -0.878485 -5.09786 14 28 3 0 0 0 0
Si 10.6631 -11.2291 9.04587 14 28 1 -0.120749 -0.185321 0.83304 0.521249
Si 9.12591 -6.05562 1.28398 14 28 3 0 0 0 0
Si 7.65176 -8.97043 2.95504 14 28 1 4.19346 -0.38568 -0.451726 0.804484
Si 9.22371 -8.31762 2.77267 14 28 3 0 0 0 0
Si 10.367 0.879022 1.79312 14 28 1 3.31551 0.979332 -0.00234919 0.202247
Si 9.43018 0.246124 -3.48943 14 28 3 0 0 0 0
Si 9.12591 -6.05562 1.28398 14 28 1 2.92715 0.807685 -0.289758 -0.513504
Si 9.12591 -6.05562 1.28398 14 28 3 0 0 0 0
Si 10.8119 -9.57366 3.56418 14 28 1 4.56568 0.139714 -0.980138 0.140748
Si 10.8119 -9.57366 3.56418 14 28 3 0 0 0 0
Si 10.5437 -10.5339 7.35053 14 28 1 2.54858 0.094678 -0.512833 0.853252
Si 10.5437 -10.5339 7.35053 14 28 3 0 0 0 0
Si 9.87325 2.02857 2.76915 14 28 1 1.92421 -0.227709 -0.847948 0.478679
Si 9.88456 1.11688 -1.44828 14 28 3 0 0 0 0
O 0.442184 1.52201 -46.828 8 16 0 97561 0.00707058 0.0493322 -0.998757
C -2.65783 -11.1774 40.0972 6 12 4 185.538 -0.298535 -0.952381 0.0620292
C 0 0 39.9 6 12 3 0 0 0 0
O 7.73552 2.23684 -44.8361 8 16 0 91139.3 0.218484 0.0518554 -0.974462
C -38.2337 -11.8344 29.7129 6 12 4 6380.08 -0.940343 -0.256954 -0.223003
C 0 0 39.9 6 12 3 0 0 0 0
O -0.908468 -0.31423 -46.8756 8 16 0 97428.3 -0.0885065 0.0240028 -0.995786
C 10.245 5.65762 39.6858 6 12 1 4.58197 0.950226 -0.166682 -0.263226
C 0 0 39.9 6 12 3 0 0 0 0
Si 8.53221 -3.32882 -4.99815 14 28 1 -0.754208 -0.85436 -0.273558 0.441855
Si 0 0 -9.89911 14 28 3 0 0 0 0
Si 4.39591 1.52716 -15.4158 14 28 1 1.58561 -0.1061 0.965203 -0.239009
Si 0 0 -9.89911 14 28 3 0 0 0 0
Si 6.53439 -7.41208 -12.2421 14 28 1 0.201192 -0.572976 -0.722668 -0.386587
Si 2.90026 -1.47535 -10.142 14 28 3 0 0 0 0
Si 9.24497 0.682095 -8.74549 14 28 1 1.2079 0.879276 -0.436036 -0.191695
Si 5.34643 -2.72715 -8.83431 14 28 3 0 0 0 0
Si 16.6715 -11.9108 -0.534502 14 28 1 0.202983 0.996658 -0.0358541 -0.0734038
Si 7.45816 -2.36723 -7.05387 14 28 3 0 0 0 0
Si 1.6806 -4.21853 -16.3011 14 28 1 4.00349 0.100324 -0.789584 -0.605386
Si 0.873201 -0.434467 -11.9485 14 28 3 0 0 0 0
Si 3.89519 -4.37776 -9.32127 14 28 1 4.95683 -0.178927 -0.522996 0.833343
Si 3.59669 -3.55265 -10.548 14 28 3 0 0 0 0
Si 7.17836 -0.170977 -10.003 14 28 1 2.34117 -0.648863 0.529014 -0.54692
Si 6.79212 -1.21837 -8.88388 14 28 3 0 0 0 0
